@<TRIPOS>MOLECULE
=
 28 30 0 0 0
SMALL
GASTEIGER

@<TRIPOS>ATOM
      1  C         10.2710    6.8910  -10.9700 C.ar    1  UNL1        0.0000
      2  C         10.9510    6.5240  -12.1420 C.ar    1  UNL1        0.0000
      3  C         12.2270    7.0270  -12.4030 C.ar    1  UNL1        0.0000
      4  C         12.8320    7.8990  -11.4980 C.ar    1  UNL1        0.0000
      5  C         12.1770    8.2410  -10.3130 C.ar    1  UNL1        0.0000
      6  C         10.9060    7.7170  -10.0360 C.ar    1  UNL1        0.0000
      7  O          8.6020    5.6360   -9.9030 O.2     1  UNL1        0.0000
      8  C          8.8810    6.4040  -10.8180 C.2     1  UNL1        0.0000
      9  N          7.9890    6.7740  -11.7990 N.am    1  UNL1        0.0000
     10  H          8.2830    7.3180  -12.6020 H       1  UNL1        0.0000
     11  C          6.6470    6.2370  -11.8050 C.3     1  UNL1        0.0000
     12  C          6.6050    4.8890  -12.4730 C.ar    1  UNL1        0.0000
     13  C          5.5170    4.0300  -12.2580 C.ar    1  UNL1        0.0000
     14  C          5.4770    2.7730  -12.8620 C.ar    1  UNL1        0.0000
     15  C          6.5230    2.3620  -13.6860 C.ar    1  UNL1        0.0000
     16  C          7.6070    3.2090  -13.9090 C.ar    1  UNL1        0.0000
     17  C          7.6510    4.4660  -13.3040 C.ar    1  UNL1        0.0000
     18  C         10.2940    8.0600   -8.7440 C.2     1  UNL1        0.0000
     19  O          9.3780    8.8570   -8.6290 O.2     1  UNL1        0.0000
     20  O         10.9600    7.4170   -7.7620 O.3     1  UNL1        0.0000
     21  C         10.2500    7.2490   -6.5300 C.3     1  UNL1        0.0000
     22  C         11.1370    7.6460   -5.3790 C.ar    1  UNL1        0.0000
     23  C         11.4100    6.6990   -4.3760 C.ar    1  UNL1        0.0000
     24  C         12.2240    7.0170   -3.2880 C.ar    1  UNL1        0.0000
     25  C         12.7680    8.2930   -3.1770 C.ar    1  UNL1        0.0000
     26  C         12.4870    9.2550   -4.1480 C.ar    1  UNL1        0.0000
     27  C         11.6740    8.9350   -5.2430 C.ar    1  UNL1        0.0000
     28 CL         11.3650   10.1800   -6.3990 Cl      1  UNL1        0.0000
@<TRIPOS>BOND
     1    16    15   ar
     2    16    17   ar
     3    15    14   ar
     4    17    12   ar
     5    14    13   ar
     6    10     9    1
     7    12    13   ar
     8    12    11    1
     9     3     2   ar
    10     3     4   ar
    11     2     1   ar
    12    11     9    1
    13     9     8   am
    14     4     5   ar
    15     1     8    1
    16     1     6   ar
    17     8     7    2
    18     5     6   ar
    19     6    18    1
    20    18    19    2
    21    18    20    1
    22    20    21    1
    23    21    22    1
    24    28    27    1
    25    22    27   ar
    26    22    23   ar
    27    27    26   ar
    28    23    24   ar
    29    26    25   ar
    30    24    25   ar
