=
 OpenBabel10092619103D

 28 30  0  0  0  0  0  0  0  0999 V2000
   10.2710    6.8910  -10.9700 C   0  0  0  0  0  0  0  0  0  0  0  0
   10.9510    6.5240  -12.1420 C   0  0  0  0  0  0  0  0  0  0  0  0
   12.2270    7.0270  -12.4030 C   0  0  0  0  0  0  0  0  0  0  0  0
   12.8320    7.8990  -11.4980 C   0  0  0  0  0  0  0  0  0  0  0  0
   12.1770    8.2410  -10.3130 C   0  0  0  0  0  0  0  0  0  0  0  0
   10.9060    7.7170  -10.0360 C   0  0  0  0  0  0  0  0  0  0  0  0
    8.6020    5.6360   -9.9030 O   0  0  0  0  0  0  0  0  0  0  0  0
    8.8810    6.4040  -10.8180 C   0  0  0  0  0  0  0  0  0  0  0  0
    7.9890    6.7740  -11.7990 N   0  0  0  0  0  0  0  0  0  0  0  0
    8.2830    7.3180  -12.6020 H   0  0  0  0  0  0  0  0  0  0  0  0
    6.6470    6.2370  -11.8050 C   0  0  0  0  0  0  0  0  0  0  0  0
    6.6050    4.8890  -12.4730 C   0  0  0  0  0  0  0  0  0  0  0  0
    5.5170    4.0300  -12.2580 C   0  0  0  0  0  0  0  0  0  0  0  0
    5.4770    2.7730  -12.8620 C   0  0  0  0  0  0  0  0  0  0  0  0
    6.5230    2.3620  -13.6860 C   0  0  0  0  0  0  0  0  0  0  0  0
    7.6070    3.2090  -13.9090 C   0  0  0  0  0  0  0  0  0  0  0  0
    7.6510    4.4660  -13.3040 C   0  0  0  0  0  0  0  0  0  0  0  0
   10.2940    8.0600   -8.7440 C   0  0  0  0  0  0  0  0  0  0  0  0
    9.3780    8.8570   -8.6290 O   0  0  0  0  0  0  0  0  0  0  0  0
   10.9600    7.4170   -7.7620 O   0  0  0  0  0  0  0  0  0  0  0  0
   10.2500    7.2490   -6.5300 C   0  0  0  0  0  0  0  0  0  0  0  0
   11.1370    7.6460   -5.3790 C   0  0  0  0  0  0  0  0  0  0  0  0
   11.4100    6.6990   -4.3760 C   0  0  0  0  0  0  0  0  0  0  0  0
   12.2240    7.0170   -3.2880 C   0  0  0  0  0  0  0  0  0  0  0  0
   12.7680    8.2930   -3.1770 C   0  0  0  0  0  0  0  0  0  0  0  0
   12.4870    9.2550   -4.1480 C   0  0  0  0  0  0  0  0  0  0  0  0
   11.6740    8.9350   -5.2430 C   0  0  0  0  0  0  0  0  0  0  0  0
   11.3650   10.1800   -6.3990 Cl  0  0  0  0  0  0  0  0  0  0  0  0
  1  8  1  0  0  0  0
  1  6  2  0  0  0  0
  2  1  1  0  0  0  0
  3  2  2  0  0  0  0
  3  4  1  0  0  0  0
  4  5  2  0  0  0  0
  5  6  1  0  0  0  0
  6 18  1  0  0  0  0
  8  7  2  0  0  0  0
  9  8  1  0  0  0  0
 10  9  1  0  0  0  0
 11  9  1  0  0  0  0
 12 13  1  0  0  0  0
 12 11  1  0  0  0  0
 14 13  2  0  0  0  0
 15 14  1  0  0  0  0
 16 15  2  0  0  0  0
 16 17  1  0  0  0  0
 17 12  2  0  0  0  0
 18 19  2  0  0  0  0
 18 20  1  0  0  0  0
 20 21  1  0  0  0  0
 21 22  1  0  0  0  0
 22 27  2  0  0  0  0
 22 23  1  0  0  0  0
 23 24  2  0  0  0  0
 24 25  1  0  0  0  0
 26 25  2  0  0  0  0
 27 26  1  0  0  0  0
 28 27  1  0  0  0  0
M  END
>  <REMARK>
 VINA RESULT:   -10.187      0.000      0.000
 INTER + INTRA:         -14.956
 INTER:                 -14.356
 INTRA:                  -0.600
 UNBOUND:                -0.600
  Name = 
  7 active torsions:
  status: ('A' for Active; 'I' for Inactive)
    1  A    between atoms: C_2  and  C_11
    2  A    between atoms: N_3  and  C_4
    3  A    between atoms: C_4  and  C_5
    4  A    between atoms: C_16  and  C_17
    5  A    between atoms: C_17  and  O_19
    6  A    between atoms: O_19  and  C_20
    7  A    between atoms: C_20  and  C_21
                            x       y       z     vdW  Elec       q    Type
                         _______ _______ _______ _____ _____    ______ ____

>  <TORSDO>
F 7

$$$$
