
     RDKit          3D

 49 51  0  0  0  0  0  0  0  0999 V2000
    3.5168    2.0381   -0.3762 O   0  0  0  0  0  0  0  0  0  0  0  0
    3.9576    1.0049    0.1991 C   0  0  0  0  0  0  0  0  0  0  0  0
    3.1977    0.4351    1.3745 C   0  0  0  0  0  0  0  0  0  0  0  0
    1.6739    0.5915    1.2421 C   0  0  0  0  0  0  0  0  0  0  0  0
    1.1100   -0.2414    0.0666 C   0  0  0  0  0  0  0  0  0  0  0  0
   -0.3671   -0.2483   -0.0212 N   0  0  0  0  0  0  0  0  0  0  0  0
   -1.0051   -1.1566    0.9594 C   0  0  0  0  0  0  0  0  0  0  0  0
   -2.5370   -0.9629    1.0226 C   0  0  0  0  0  0  0  0  0  0  0  0
   -3.0872   -0.3576   -0.2985 C   0  0  0  0  0  0  0  0  0  0  0  0
   -2.7129   -1.1994   -1.3691 O   0  0  0  0  0  0  0  0  0  0  0  0
   -4.6146   -0.1964   -0.2570 C   0  0  0  0  0  0  0  0  0  0  0  0
   -5.2452    0.4353    0.8377 C   0  0  0  0  0  0  0  0  0  0  0  0
   -6.6316    0.6101    0.8626 C   0  0  0  0  0  0  0  0  0  0  0  0
   -7.4134    0.1777   -0.2098 C   0  0  0  0  0  0  0  0  0  0  0  0
   -9.1528    0.4022   -0.1767 Cl  0  0  0  0  0  0  0  0  0  0  0  0
   -6.8059   -0.4194   -1.3156 C   0  0  0  0  0  0  0  0  0  0  0  0
   -5.4197   -0.5967   -1.3467 C   0  0  0  0  0  0  0  0  0  0  0  0
   -2.4284    1.0286   -0.5356 C   0  0  0  0  0  0  0  0  0  0  0  0
   -0.9729    1.0959   -0.0288 C   0  0  0  0  0  0  0  0  0  0  0  0
    5.2394    0.4143   -0.2611 C   0  0  0  0  0  0  0  0  0  0  0  0
    5.6877    0.6497   -1.5746 C   0  0  0  0  0  0  0  0  0  0  0  0
    6.8944    0.1031   -2.0218 C   0  0  0  0  0  0  0  0  0  0  0  0
    7.6708   -0.6782   -1.1632 C   0  0  0  0  0  0  0  0  0  0  0  0
    8.8413   -1.2061   -1.5985 F   0  0  0  0  0  0  0  0  0  0  0  0
    7.2431   -0.9109    0.1459 C   0  0  0  0  0  0  0  0  0  0  0  0
    6.0366   -0.3674    0.5982 C   0  0  0  0  0  0  0  0  0  0  0  0
    3.5348    0.9595    2.2940 H   0  0  0  0  0  0  0  0  0  0  0  0
    3.4266   -0.6454    1.4963 H   0  0  0  0  0  0  0  0  0  0  0  0
    1.4285    1.6670    1.1112 H   0  0  0  0  0  0  0  0  0  0  0  0
    1.2183    0.2614    2.1973 H   0  0  0  0  0  0  0  0  0  0  0  0
    1.4788   -1.2884    0.1439 H   0  0  0  0  0  0  0  0  0  0  0  0
    1.5137    0.1593   -0.8880 H   0  0  0  0  0  0  0  0  0  0  0  0
   -0.7955   -2.2049    0.6545 H   0  0  0  0  0  0  0  0  0  0  0  0
   -0.5875   -1.0165    1.9783 H   0  0  0  0  0  0  0  0  0  0  0  0
   -3.0294   -1.9366    1.2383 H   0  0  0  0  0  0  0  0  0  0  0  0
   -2.7549   -0.2871    1.8761 H   0  0  0  0  0  0  0  0  0  0  0  0
   -3.0549   -2.1124   -1.1759 H   0  0  0  0  0  0  0  0  0  0  0  0
   -4.6702    0.8139    1.6707 H   0  0  0  0  0  0  0  0  0  0  0  0
   -7.0960    1.0914    1.7140 H   0  0  0  0  0  0  0  0  0  0  0  0
   -7.4064   -0.7414   -2.1570 H   0  0  0  0  0  0  0  0  0  0  0  0
   -4.9854   -1.0434   -2.2311 H   0  0  0  0  0  0  0  0  0  0  0  0
   -2.4518    1.2613   -1.6234 H   0  0  0  0  0  0  0  0  0  0  0  0
   -3.0021    1.8341   -0.0263 H   0  0  0  0  0  0  0  0  0  0  0  0
   -0.9652    1.5232    0.9995 H   0  0  0  0  0  0  0  0  0  0  0  0
   -0.3959    1.7795   -0.6906 H   0  0  0  0  0  0  0  0  0  0  0  0
    5.0995    1.2478   -2.2597 H   0  0  0  0  0  0  0  0  0  0  0  0
    7.2264    0.2860   -3.0357 H   0  0  0  0  0  0  0  0  0  0  0  0
    7.8492   -1.5088    0.8144 H   0  0  0  0  0  0  0  0  0  0  0  0
    5.7439   -0.5446    1.6245 H   0  0  0  0  0  0  0  0  0  0  0  0
  1  2  2  0
  2  3  1  0
  3  4  1  0
  4  5  1  0
  5  6  1  0
  6  7  1  0
  7  8  1  0
  8  9  1  0
  9 10  1  0
  9 11  1  0
 11 12  1  0
 12 13  2  0
 13 14  1  0
 14 15  1  0
 14 16  2  0
 16 17  1  0
  9 18  1  0
 18 19  1  0
  2 20  1  0
 20 21  1  0
 21 22  2  0
 22 23  1  0
 23 24  1  0
 23 25  2  0
 25 26  1  0
 19  6  1  0
 26 20  2  0
 17 11  2  0
  3 27  1  0
  3 28  1  0
  4 29  1  0
  4 30  1  0
  5 31  1  0
  5 32  1  0
  7 33  1  0
  7 34  1  0
  8 35  1  0
  8 36  1  0
 10 37  1  0
 12 38  1  0
 13 39  1  0
 16 40  1  0
 17 41  1  0
 18 42  1  0
 18 43  1  0
 19 44  1  0
 19 45  1  0
 21 46  1  0
 22 47  1  0
 25 48  1  0
 26 49  1  0
M  END
$$$$
